AquaCrop 6.0 (March 2017) - Output created on (date) : 24/01/2023   at (time) : 05:48:14 p.m.

    RunNr     Day1   Month1    Year1     Rain      ETo       GD     CO2      Irri   Infilt   Runoff    Drain   Upflow        E     E/Ex       Tr      TrW   Tr/Trx    SaltIn   SaltOut    SaltUp  SaltProf     Cycle   SaltStr  FertStr  WeedStr  TempStr   ExpStr   StoStr  BioMass  Brelative   HI     Yield     WPet     DayN   MonthN    YearN
                                           mm       mm    °C.day    ppm        mm       mm       mm       mm       mm       mm        %       mm       mm        %    ton/ha    ton/ha    ton/ha    ton/ha      days       %        %        %        %        %        %    ton/ha        %       %    ton/ha    kg/m3
   Tot(1)       22        3     2018      0.0   1055.0   3059.5   408.21      0.0      0.0      0.0      0.0      0.0     30.5        5    163.7    163.7       42     0.000     0.000     0.000     0.000      195        0        0        0        0       39       54     6.093       33     43.2    2.629     1.35       18       10     2018  Default.PRO
